 &NAMDIM
   NDGLG=450,
   NDGUXG=439,
   NDLON=450,
   NDLUXG=439,
   NFLEVG=1,
   NMSMAX=149,
   NSMAX=149,
 /
 &NEMDIM
   NBZONG=8,
   NBZONL=8,
 /
 &NEMGEO
   EDELX=8000.,
   EDELY=8000.,
   ELAT0=32.5,
   ELATC=32.5,
   ELON0=3.25,
   ELONC=3.25,
 /
