 &NAMDIM
   NDGLG=486,
   NDGUXG=475,
   NDLON=324,
   NDLUXG=313,
   NFLEVG=1,
   NMSMAX=107,
   NSMAX=161,
 /
 &NEMDIM
   NBZONG=8,
   NBZONL=8,
 /
 &NEMGEO
   EDELX=7000.,
   EDELY=7000.,
   ELAT0=50.5,
   ELATC=58.,
   ELON0=4.5,
   ELONC=0.,
 /
