 &NAMDIM
   NDGLG=216,
   NDGUXG=205,
   NDLON=240,
   NDLUXG=229,
   NFLEVG=1,
   NMSMAX=79,
   NSMAX=71,
 /
 &NEMDIM
   NBZONG=8,
   NBZONL=8,
 /
 &NEMGEO
   EDELX=8000.,
   EDELY=8000.,
   ELAT0=44.,
   ELATC=44.,
   ELON0=14.,
   ELONC=14.,
 /
