 &NAMDIM
   NDGLG=512,
   NDGUXG=499,
   NDLON=512,
   NDLUXG=499,
   NFLEVG=1,
   NMSMAX=255,
   NSMAX=255,
 /
 &NEMDIM
   NBZONG=8,
   NBZONL=8,
 /
 &NEMGEO
  ELON0=9.9,
  ELAT0=49.,
  ELONC=9.9,
  ELATC=49.,
  EDELX=12500.,
  EDELY=12500.,
 /
