 &NAMDIM
   NDLON=640,
   NDLUXG=629,
   NDGLG=540,
   NDGUXG=529,
   NFLEVG=1,
   NMSMAX=319,
   NSMAX=269,
 /
 &NEMDIM
   NBZONL=21,
   NBZONG=21,
 /
 &NEMGEO
   ELON0=8.48,
   ELAT0=44.88,
   ELONC=8.48,
   ELATC=44.88,
   EDELX=2500.,
   EDELY=2500.,
 /
