 &NAMDIM
   NDGLG=360,
   NDGUXG=349,
   NDLON=384,
   NDLUXG=373,
   NFLEVG=1,
   NMSMAX=119,
   NSMAX=127,
 /
 &NEMDIM
   NBZONG=8,
   NBZONL=8,
 /
 &NEMGEO
   EDELX=8000.,
   EDELY=8000.,
   ELAT0=46.2447,
   ELATC=46.2447,
   ELON0=17.,
   ELONC=17.,
 /
