 &NAMDIM
   NDGLG=288,
   NDGUXG=277,
   NDLON=450,
   NDLUXG=439,
   NFLEVG=1,
   NMSMAX=149,
   NSMAX=95,
 /
 &NEMDIM
   NBZONG=8,
   NBZONL=8,
 /
 &NEMGEO
   EDELX=10000.,
   EDELY=10000.,
   ELAT0=37.5,
   ELATC=38.277795538,
   ELON0=-17.75,
   ELONC=-17.75,
 /
