 &NAMDIM
   NDGLG=240,
   NDGUXG=229,
   NDLON=300,
   NDLUXG=289,
   NFLEVG=1,
   NMSMAX=99,
   NSMAX=79,
 /
 &NEMDIM
   NBZONG=8,
   NBZONL=8,
 /
 &NEMGEO
   EDELX=9000.,
   EDELY=9000.,
   ELAT0=45.,
   ELATC=45.,
   ELON0=28.,
   ELONC=28.,
 /
