 &NAMDIM
   NDLON=240,
   NDLUXG=229,
   NDGLG=240,
   NDGUXG=229,
   NFLEVG=1,
   NMSMAX=119,
   NSMAX=119,
 /
 &NEMDIM
   NBZONL=21,
   NBZONG=21,
 /
 &NEMGEO
   ELON0=5.1,
   ELAT0=43.67,
   ELONC=5.1,
   ELATC=43.67,
   EDELX=2500.,
   EDELY=2500.,
 /
