 &NAMDIM
   NDGLG=250,
   NDGUXG=239,
   NDLON=250,
   NDLUXG=239,
   NFLEVG=1,
   NMSMAX=83,
   NSMAX=83,
 /
 &NEMDIM
   NBZONG=8,
   NBZONL=8,
 /
 &NEMGEO
   EDELX=10000.,
   EDELY=10000.,
   ELAT0=36.,
   ELATC=36.,
   ELON0=6.,
   ELONC=6.,
 /
