 &NAMDIM
   NDGLG=288,
   NDGUXG=277,
   NDLON=432,
   NDLUXG=421,
   NFLEVG=1,
   NMSMAX=143,
   NSMAX=95,
 /
 &NEMDIM
   NBZONG=8,
   NBZONL=8,
 /
 &NEMGEO
   EDELX=9000.,
   EDELY=9000.,
   ELAT0=40.,
   ELATC=40.,
   ELON0=32.,
   ELONC=32.,
 /
