&NAMFPD 
NLAT=432, NLON=432,
NFPLUX=421, NFPGUX=421,
RLONC=3.700000,
RLATC=51.070000,
RDELX=4000.000000,
RDELY=4000.000000
/
&NAMFPG 
FPLON0=3.700000,
FPLAT0=51.070000,
NMFPMAX=215,
NFPMAX=215,
NFPLEV=46,
/
