&NAMARG
    NCONF=903,
    CNMEXP='ABOF',
    LECMWF=.F.,
    LELAM=.T.,
    CUSTOP='t0',
/
&NAMFPC
    CFPFMT='LELAM',
    CFPDOM(1)='ABOF',
    CFP2DF(1)='MSLPRESSURE',
/
&NAMPAR0
    MBX_SIZE=2048000000,
    NOUTPUT=1,
    NPROC={nproc},
    MP_TYPE=2,
    LOPT_SCALAR=.TRUE.,
    NPRINTLEV=0,
/
&NAMPAR1
    L_GATHERV_WRGP=.FALSE.,
    LEQ_REGIONS=.FALSE.,
    LSPLIT=.FALSE.,
    NSTRIN={nproc},
    NSTROUT={nproc},
    NCOMBFLEN=1800000,
/
&NAERAD
    LRRTM=.FALSE.,
    LSRTM=.FALSE.,
    NMCICA=0,
 /
&NAMFPD 
    ! NLAT=512, NLON=512,
    ! NFPLUX=499, NFPGUX=499,
    ! RLONC=9.9,
    ! RLATC=49.,
    ! RDELX=12500.,
    ! RDELY=12500.,
/
&NAMFPG 
    ! FPLAT0=49.,
    ! FPLON0=9.9,
    ! BEWARE: to get LINEAR GRID you MUST specify the truncation here.
    ! NFPMAX=255, NMFPMAX=255,
    ! NFPLEV=46,
/
&NAMCT0
    LARPEGEF=.T.,
    NFPOS=1,
    NPOSTS=0,
    NFRPOS=1,
/
&NAMCT1
    N1POS=1,
/
&NACIETEO
/
&NACOBS
/
&NACTAN
/
&NACTEX
/
&NACVEG
/
&NADOCK
/
&NAEAEM7
/
&NAEAER
/
&NAECOAPHY
/
&NAEPHLI
/
&NAEPHY
/
&NAERCLI
/
&NAEVOL
/
&NAIMPO
/
&NALORI
/
&NAMAFN
/
&NAMARPHY
/
&NAMCA
/
&NAMCAPE
/
&NAMCFU
/
&NAMCHEM
/
&NAMCHET
/
&NAMCHK
/
&NAMCLA
/
&NAMCLDP
/
&NAMCLI
/
&NAMCLOP15
/
&NAMCLTC
/
&NAMCOK
/
&NAMCOM
/
&NAMCOSJO
/
&NAMCUMF
/
&NAMCUMFS
/
&NAMCVER
/
&NAMCVMNH
/
&NAMDDH
/
&NAMDFI
/
&NAMDIM
/
&NAMDIMO
/
&NAMDIM_TRAJ
/
&NAMDPHY
/
&NAMDYN
/
&NAMDYNA
/
&NAMDYNCORE
/
&NAMEMIS_CONF
/
&NAMENKF
/
&NAMFA
/
&NAMFAINIT
/
&NAMFPDY2
/
&NAMFPDYF
/
&NAMFPDYH
/
&NAMFPDYI
/
&NAMFPDYP
/
&NAMFPDYS
/
&NAMFPDYT
/
&NAMFPDYV
/
&NAMFPF
/
&NAMFPIOS
/
&NAMFPMOVE
/
&NAMFPPHY
/
&NAMFPSC2
/
&NAMFPSC2_DEP
/
&NAMGEM
/
&NAMGFL
/
&NAMGRIB
/
&NAMGWD
/
&NAMGWDIAG
/
&NAMGWWMS
/
&NAMIAU
/
&NAMICE
/
&NAMINI
/
&NAMINTFLEX
/
&NAMIOMI
/
&NAMIOS
/
&NAMIO_SERV
/
&NAMJBCODES
/
&NAMJFH
/
&NAMJG
/
&NAMLCZ
/
&NAMLSFORC
/
&NAMMARS
/
&NAMMCC
/
&NAMMCUF
/
&NAMMKODB
/
&NAMMODERR
/
&NAMMTS
/
&NAMMWAVE
/
&NAMNPROF
/
&NAMNUD
/
&NAMOBS
/
&NAMONEDVAR
/
&NAMOOPS
/
&NAMOPH
/
&NAMOPTCMEM
/
&NAMPARAR
/
&NAMPHMSE
/
&NAMPHY
/
&NAMPHY0
/
&NAMPHY1
/
&NAMPHY2
/
&NAMPHY3
/
&NAMPHYDS
/
&NAMPONG
/
&NAMPPC
/
&NAMPPVI
/
&NAMPRE
/
&NAMRAD15
/
&NAMRADCMEM
/
&NAMRCF
/
&NAMRCOEF
/
&NAMRES
/
&NAMRGRI
/
&NAMRINC
/
&NAMRIP
/
&NAMRIP0
/
&NAMRLX
/
&NAMSATS
/
&NAMSCC
/
&NAMSCEN
/
&NAMSCM
/
&NAMSEKF
/
&NAMSENS
/
&NAMSIMPHL
/
&NAMSPNG
/
&NAMSPSDT
/
&NAMSTA
/
&NAMSTOPH
/
&NAMSWE
/
&NAMTESTVAR
/
&NAMTHLIM
/
&NAMTOPH
/
&NAMTRAJP
/
&NAMTRANS
/
&NAMTRANS0
/
&NAMTS
/
&NAMVAR
/
&NAMVARBC
/
&NAMVARBC_AIREP
/
&NAMVARBC_ALLSKY
/
&NAMVARBC_GBRAD
/
&NAMVARBC_RAD
/
&NAMVARBC_SFCOBS
/
&NAMVARBC_TCWV
/
&NAMVARBC_TO3
/
&NAMVAREPS
/
&NAMVDF
/
&NAMVDOZ
/
&NAMVOLCANO
/
&NAMVRTL
/
&NAMVV0
/
&NAMVV1
/
&NAMVWRK
/
&NAMWAVELETJB
/
&NAMXFU
/
&NAM_CANAPE
/
&NAM_DISTRIBUTED_VECTORS
/
&NAPHLC
/
&NEMCT0
/
&NEMDIM
/
&NEMDYN
/
&NEMELBC0A
/
&NEMELBC0B
/
&NEMFPEZO
/
&NEMGEO
/
&NEMJK
/
&NEMVAR
/
&NEMWAVELET
/
