&NAMCT0
    LRPLANE=.FALSE.,
/
&NAMDIM
NDGUXG=97,
NDGLG=97,
NDLUXG=97,
NDLON=97,
/
&NEMGEO
ELAT0=0.,
ELON0=0.,
ELONC=4.526000,
ELATC=50.528000,
EDELX=0.092000,
EDELY=0.061000,
/
&NEMDIM
/