&NAMCT0
    LRPLANE=.FALSE.,
/
&NAMDIM
NDGUXG=51,
NDGLG=51,
NDLUXG=51,
NDLON=51,
/
&NEMGEO
ELAT0=0.,
ELON0=0.,
ELONC=4.526000,
ELATC=50.528000,
EDELX=0.092000,
EDELY=0.061000,
/
&NEMDIM
/