 &NAM_CONF_PROJ
   XBETA=0.,
   XLAT0=32.5,
   XLON0=3.25,
   XRPK=0.5372996083,
 /
 &NAM_CONF_PROJ_GRID
   ILATE=11,
   ILONE=11,
   NIMAX=439,
   NJMAX=439,
   XDX=8000.,
   XDY=8000.,
   XLATCEN=32.5,
   XLONCEN=3.25,
 /
