 &NAM_PGD_GRID
   CGRID = 'CONF PROJ ',
 /
 &NAM_CONF_PROJ
   XLON0=4.8,
   XLAT0=46.2,
   XRPK=0.721760228098362,
   XBETA=0.,
 /
 &NAM_CONF_PROJ_GRID
   ILATE=11,
   ILONE=11,
   IWIDTH_I_X=21,
   IWIDTH_I_Y=21,
   NIMAX=889,
   NJMAX=709,
   XDX=2500.,
   XDY=2500.,
   XLONCEN=4.8,
   XLATCEN=46.2,
 /
