 &NAM_CONF_PROJ
   XBETA=0.,
   XLAT0=50.5,
   XLON0=4.5,
   XRPK=0.77162458338772,
 /
 &NAM_CONF_PROJ_GRID
   ILATE=11,
   ILONE=11,
   NIMAX=313,
   NJMAX=475,
   XDX=7000.,
   XDY=7000.,
   XLATCEN=58.,
   XLONCEN=0.,
 /
