 &NAM_PGD_GRID
   CGRID = 'CONF PROJ ',
 /
 &NAM_CONF_PROJ
   XLON0=8.48,
   XLAT0=44.88,
   XRPK=0.705624270431721,
   XBETA=0.,
 /
 &NAM_CONF_PROJ_GRID
   ILATE=11,
   ILONE=11,
   IWIDTH_I_X=21,
   IWIDTH_I_Y=21,
   NIMAX=629,
   NJMAX=529,
   XDX=2500.,
   XDY=2500.,
   XLONCEN=8.48,
   XLATCEN=44.88,
 /
