 &NAM_CONF_PROJ
   XBETA=0.,
   XLAT0=46.2447,
   XLON0=17.,
   XRPK=0.722299992317207,
 /
 &NAM_CONF_PROJ_GRID
   ILATE=11,
   ILONE=11,
   NIMAX=373,
   NJMAX=349,
   XDX=8000.,
   XDY=8000.,
   XLATCEN=46.2447,
   XLONCEN=17.,
 /
