 &NAM_CONF_PROJ
   XBETA=0.,
   XLAT0=30.,
   XLON0=0.,
   XRPK=0.5,
 /
 &NAM_CONF_PROJ_GRID
   ILATE=11,
   ILONE=11,
   NIMAX=709,
   NJMAX=349,
   XDX=18000.,
   XDY=18000.,
   XLATCEN=29.5019,
   XLONCEN=0.347899999999995,
 /
