 &NAM_CONF_PROJ
   XBETA=0.,
   XLAT0=45.,
   XLON0=28.,
   XRPK=0.707106781186548,
 /
 &NAM_CONF_PROJ_GRID
   ILATE=11,
   ILONE=11,
   NIMAX=289,
   NJMAX=229,
   XDX=9000.,
   XDY=9000.,
   XLATCEN=45.,
   XLONCEN=28.,
 /
