 &NAM_PGD_GRID
   CGRID = 'CONF PROJ ',
 /
 &NAM_CONF_PROJ
   XLON0=5.10,
   XLAT0=43.67,
   XRPK=0.690503771677093,
   XBETA=0.,
 /
 &NAM_CONF_PROJ_GRID
   ILATE=11,
   ILONE=11,
   IWIDTH_I_X=21,
   IWIDTH_I_Y=21,
   NIMAX=229,
   NJMAX=229,
   XDX=2500.,
   XDY=2500.,
   XLONCEN=5.10,
   XLATCEN=43.67,
 /
