 &NAM_CONF_PROJ
   XBETA=0.,
   XLAT0=36.,
   XLON0=6.,
   XRPK=0.587785252292473,
 /
 &NAM_CONF_PROJ_GRID
   ILATE=11,
   ILONE=11,
   NIMAX=239,
   NJMAX=239,
   XDX=10000.,
   XDY=10000.,
   XLATCEN=36.,
   XLONCEN=6.,
 /
