 &NAM_CONF_PROJ
   XBETA=0.,
   XLAT0=40.,
   XLON0=32.,
   XRPK=0.642787609686539,
 /
 &NAM_CONF_PROJ_GRID
   ILATE=11,
   ILONE=11,
   NIMAX=421,
   NJMAX=277,
   XDX=9000.,
   XDY=9000.,
   XLATCEN=40.,
   XLONCEN=32.,
 /
