 &NAM_COVER
   YCOVER='ecoclimap',
   YCOVERFILETYPE='DIRECT',
 /
 &NAM_IO_OFFLINE
   CPGDFILE='PGD',
   CSURF_FILETYPE='FA',
   LFAGMAP=.TRUE.,
   NHALO=0,
 /
 &NAM_ISBA
   YCLAY='clay',
   YCLAYFILETYPE='DIRECT',
   YSAND='sand',
   YSANDFILETYPE='DIRECT',
 /
 &NAM_PGD_GRID
   CGRID='CONF PROJ',
 /
 &NAM_ZS
   CSVF='MANNERS',
   LFSSOSVF=.FALSE.,
   LORORAD=.TRUE.,
   YZS='orography',
   YZSFILETYPE='DIRECT',
 /
 &NAM_ZS_FILTER
   NZSFILTER=0,
 /
