&NAM_LONLAT_REG
  XLONMIN=2.226,
  XLONMAX=6.826,
  XLATMIN=49.003,
  XLATMAX=52.053,
  NLON=51,
  NLAT=51,
/
&NAM_PGD_GRID
  CGRID='LONLAT REG',
/