&NAM_LONLAT_REG
  XLONMIN=0.11,
  XLONMAX=8.942,
  XLATMIN=47.6,
  XLATMAX=53.456,
  NLON=97,
  NLAT=97,
/
&NAM_PGD_GRID
  CGRID='LONLAT REG',
/