 &NAM_LONLAT_REG
   XLONMIN=14.2875,
   XLONMAX=24.3125,
   XLATMIN=44.8875,
   XLATMAX=49.5125,
   NLON=401,
   NLAT=185,
 /
 &NAM_PGD_GRID
   CGRID='LONLAT REG',
 /
